606
drexler-axel.gpr	Energy:       0.0000000
  C      -13.11400        3.52700       -1.47200
  H      -18.96300       -0.66400       -3.27800
  C      -13.84900        2.56200       -0.68000
  C      -13.10200        1.33400       -0.55500
  C      -13.82400        0.16500       -1.01100
  C      -13.07200       -0.53200       -2.02900
  C      -13.79900       -0.74100       -3.26400
  C      -13.06400       -0.20700       -4.38700
  H       18.81100       -0.41100       -1.79700
  C      -13.80400        0.75100       -5.17700
  C      -13.08100        2.00000       -5.27800
  C      -13.83300        3.15400       -4.84400
  C      -13.11300        3.88200       -3.82500
  C      -13.85300        4.05300       -2.59600
  H      -18.31300       -1.99300      -11.12600
  O      -18.38900       -3.22600       -9.58000
  C      -17.91100       -2.09000      -10.12000
  O      -18.36000       -4.59200       -7.81000
  C      -17.88700       -3.44900       -8.34700
  C       -9.38600        4.06500       -2.59900
  C       -8.61000       -0.13500       -4.34000
  O      -18.36800       -5.98900       -6.06400
  C      -17.87800       -4.84000       -6.57500
  C       -8.62900        2.05400       -5.25700
  C       -8.64600        3.58000       -1.47400
  C       -8.65100        3.94100       -3.82500
  C      -17.88600       -6.23800       -4.83400
  N      -18.21400       -5.22600       -3.93700
  C      -17.73900       -4.00000       -4.42000
  N      -18.14800       -3.76900       -5.72000
  C      -17.69200       -2.56300       -6.22300
  N      -18.15300       -2.36300       -7.51100
  C      -17.74900       -1.15400       -8.04800
  N      -18.23200       -0.97800       -9.35000
  C      -17.82800        0.24100       -9.85900
  H      -18.22300        0.37800      -10.86600
  H      -18.27900       -7.19400       -4.49700
  H      -18.19200       -6.37300       -2.25600
  C      -17.80400       -5.42600       -2.63300
  H      -18.21300        2.68200      -10.54900
  C      -17.81600        2.54600       -9.54000
  N      -18.17100        1.30800       -9.04500
  C      -17.65800        1.12900       -7.75000
  N      -18.00900       -0.09200       -7.20800
  C      -17.49600       -0.29700       -5.92800
  N      -17.93300       -1.49900       -5.38900
  C      -17.49200       -1.73300       -4.09600
  N      -18.00000       -2.93000       -3.58900
  C      -17.64400       -3.16300       -2.27500
  N      -18.14900       -4.38200       -1.79000
  H      -18.18000       -5.51100       -0.09400
  C      -17.78600       -4.56600       -0.47100
  H      -18.27400        4.99200      -10.21200
  C      -17.87700        4.85200       -9.20500
  N      -18.19400        3.59100       -8.72200
  C      -17.68600        3.41300       -7.42400
  N      -17.96300        2.17000       -6.89800
  C      -17.43000        1.99500       -5.62200
  C       -8.61800       -0.49700       -1.99500
  C       -9.35700        0.23900       -1.01600
  C      -17.86500        0.75800       -5.09000
  C      -17.34300        0.55400       -3.78300
  C      -17.86200       -0.66800       -3.27200
  N      -17.95100       -2.08900       -1.46900
  C      -17.42300       -0.88800       -1.94500
  N      -18.17500       -3.52200        0.34600
  C      -17.66900       -2.30300       -0.13800
  C      -17.85700       -3.68700        1.68300
  H      -18.24700       -4.63300        2.06000
  O      -18.48400        8.10000       -7.97300
  C      -17.98800        7.97600       -6.72700
  N      -18.24200        6.69700       -6.22700
  C      -17.78100        6.53700       -4.93300
  N      -18.00200        5.27700       -4.42800
  C      -17.56300        5.15000       -3.12000
  N      -15.79500        6.34900       -2.27100
  C      -17.91100        3.89000       -2.62700
  O      -15.98800       -6.13500       -6.14500
  C      -17.47400        3.74100       -1.29000
  C      -16.35000        0.21700       -9.95900
  C      -17.91300        2.47600       -0.82700
  C      -16.53200        7.27200       -8.87400
  C        8.45700        0.27400       -0.93600
  C      -17.57200        2.29700        0.51400
  N      -16.01100        6.02800       -8.50300
  N      -18.01000        1.05300        0.94800
  N      -15.65100       -2.22200       -1.38800
  C      -17.79700        0.86500        2.29100
  C      -16.00000       -0.02700        0.29200
  C      -18.01100       -0.53500        4.11900
  N      -18.25100       -0.35700        2.75400
  C      -16.33900        2.57800       -9.64200
  H      -18.39800        7.34500       -9.80200
  C      -17.99700        7.16500       -8.80800
  C       -8.63100        1.38400       -0.55100
  C       -9.37500        2.59600       -0.72300
  C       12.95300        0.76400       -4.95800
  C       13.68000       -0.25100       -4.22600
  C       12.93200       -0.68100       -3.07000
  C       13.65000       -0.53900       -1.82300
  C       12.90400        0.27100       -0.88900
  C       13.63600        1.40800       -0.37400
  C       12.91000        2.63300       -0.60100
  C       13.65300        3.63400       -1.32800
  C       12.93400        4.05300       -2.50800
  C       13.68400        3.92300       -3.73500
  C       12.96300        3.12900       -4.69800
  C       13.69600        1.98100       -5.17900
  N      -18.30300        5.87500       -8.37900
  C       10.73500        1.99700       -5.16900
  C       11.45900        0.77400       -4.97800
  C       10.71300       -0.19300       -4.23500
  N      -15.71200        1.05300        1.16200
  C       11.43300       -0.66900       -3.08900
  C       10.68900       -0.49500       -1.88000
  C       11.41200        0.27100       -0.90900
  C       10.67900        1.41500       -0.46400
  C       11.41600        2.63100       -0.62800
  C       10.69700        3.59900       -1.39900
  C      -17.82100        5.68900       -7.07700
  C       11.44400        4.06000       -2.52700
  C      -15.93200        3.81400       -1.23100
  C       10.73000        3.90300       -3.75600
  C       11.46800        3.13700       -4.71400
  N      -18.06100        4.42800       -6.56400
  H      -16.12800       -7.33100       -4.56400
  C       -0.43100        3.25000       -4.82900
  C        0.30700        2.09800       -5.25700
  C       -0.42900        0.89400       -5.04300
  C       -0.43400       -0.58600       -3.18900
  C        0.29100       -0.47700       -1.96400
  C      -17.54600        4.28000       -5.27700
  C      -11.60100        1.35300       -0.55300
  C      -11.57800       -0.51400       -2.01600
  C      -10.87500        2.58000       -0.72100
  C        0.30300       -0.08900       -4.30600
  O      -16.01700       -3.33900       -9.72200
  C      -11.61700        3.54600       -1.47000
  C      -17.89100        3.02600       -4.76800
  C      -11.58800        2.02100       -5.27000
  C      -10.88600        4.04600       -2.59800
  C       -0.44400        0.27200       -0.99400
  C      -10.87200        3.16900       -4.80300
  N      -15.81800        3.41100        1.48600
  C        0.28400        1.42600       -0.57800
  C      -11.61600        3.89900       -3.82100
  N      -15.75600       -1.30500        0.81400
  H      -18.93900        1.60100       -2.96300
  C      -11.56900       -0.17800       -4.36800
  C      -10.84300        0.81200       -5.10200
  H       18.79600        1.41400       -0.43800
  H      -19.01300        2.45800       -0.85200
  C      -10.83800       -0.64700       -3.23000
  C      -16.02900        2.32400        0.62600
  C      -10.85600        0.22600       -1.02300
  C        9.23500        3.91700       -3.77300
  C      -17.36800        2.86900       -3.45500
  H      -16.16700       -2.08700      -11.25900
  C      -16.02000        5.25900       -3.12400
  C      -17.83300        1.61200       -2.95500
  H      -16.10600        2.72600      -10.69600
  C      -17.36700        1.42700       -1.61700
  H      -16.25100        7.50700       -9.89700
  C      -17.54300       -0.00800        0.18800
  N      -15.90500        3.68300       -8.88200
  C      -17.88600        0.18600       -1.15000
  O      -16.12100        8.28200       -8.06900
  N      -15.96900        6.88500       -6.31900
  C      -17.81600       -1.42100        1.98500
  N      -18.05100       -1.22700        0.64100
  C      -15.31000       -0.74700       -3.26700
  N      -18.29100       -2.64300        2.47600
  C      -15.80600        0.55900       -3.78300
  C      -17.99400       -2.75000        3.83000
  C        9.23900        2.01100       -5.18700
  C        8.51000        3.16700       -4.75100
  O      -18.50200       -1.72200        4.53400
  N      -15.99800        5.74200        1.81000
  C        9.21600       -0.17900       -4.25300
  N      -15.73100        4.90300       -0.37200
  C        8.49500        0.80300       -5.01400
  H       18.85200        1.95300       -4.98800
  H       18.84300       -0.13900       -4.07800
  C       -0.44200        4.11700       -2.63400
  O      -18.57300        2.70500        5.15700
  C        0.29900        3.99600       -3.85400
  C      -18.04600        1.69500        4.43300
  O      -18.51700        0.49500        4.82700
  C      -16.16300       -2.64900       -6.29500
  C      -16.21500        4.66400        0.94400
  H      -18.44400       10.49400       -1.99000
  C      -18.03500        9.67500       -2.57800
  O      -18.51100        9.77200       -3.83200
  C      -15.95100       -0.34000       -5.99600
  H      -18.34500        9.07900       -0.06400
  C      -17.94400        8.28100       -0.69100
  C      -15.31500        0.74600       -5.17700
  C        1.78700        3.59100       -1.52400
  C        2.51500        2.63600       -0.76000
  C        2.52300       -0.59700       -3.17200
  C        2.54400        3.23600       -4.81400
  C        2.53800        0.87600       -5.03900
  C        4.77800        2.06900       -5.21000
  C        2.53100        4.10800       -2.62400
  N      -18.34600        8.44800       -2.00200
  C        1.80700        2.09000       -5.25200
  C        4.77500        3.97200       -3.81800
  C        4.03000        4.11300       -2.60500
  C        1.79700       -0.09800       -4.30100
  H      -18.33800        7.64700        1.76600
  C      -17.92000        6.85200        1.14500
  C        4.75000        3.61800       -1.47000
  C        4.74300       -0.46000       -1.93100
  C        4.00800        2.64500       -0.72800
  N      -15.87200       -3.92000       -5.80900
  C        4.01800       -0.58300       -3.15300
  C        4.76000       -0.09800       -4.26300
  C        1.78800       -0.47600       -1.95700
  C        4.04700        3.22300       -4.79200
  C        6.99400        4.08400       -2.57900
  C        4.03400        0.87400       -5.00900
  N      -18.27100        7.03800       -0.17600
  C        4.73600        1.43200       -0.51900
  C      -15.36200        4.02000       -2.59300
  C        6.24500        3.60800       -1.45800
  C        6.96700        2.63700       -0.69800
  C      -15.83100        2.89800       -3.45200
  C        6.23000        1.42800       -0.51100
  H      -18.39600        6.20000        3.59000
  C        6.96200        0.28100       -0.95000
  C      -17.98100        5.40600        2.96800
  C        6.23700       -0.47400       -1.92200
  C        6.25300       -0.13200       -4.26900
  C        6.99900        0.82300       -5.02400
  H       18.83400        3.79700       -3.61900
  C        6.27600        2.04800       -5.21400
  C      -15.36200        2.54500       -0.70500
  C        4.00800        0.28400       -0.96400
  N      -18.28900        5.61400        1.63400
  C        7.01300        3.18500       -4.76700
  C        8.48900        4.07800       -2.56200
  H       18.77800        1.68900       -2.71200
  C        1.80500        3.98800       -3.84800
  C      -16.41800       -6.33100       -4.87400
  C        6.27500        3.95000       -3.80500
  C        9.20400        3.60300       -1.41900
  H      -16.24400       -3.71100        4.43200
  C        8.46000        2.63500       -0.67600
  C        6.97500       -0.63000       -3.13700
  N      -18.39300        4.17100        3.43600
  C        9.18600        1.41800       -0.48300
  C      -16.00300        4.37200       -5.33000
  C        9.19300       -0.49000       -1.89700
  C        8.47100       -0.64700       -3.12500
  H       18.16700        8.67200        2.83900
  O       18.23500        6.86300        3.63800
  C       17.76200        7.67700        2.67600
  O       18.19500        4.80200        4.51000
  C       17.72700        5.61600        3.54000
  O       18.18800        2.75800        5.41800
  C       17.70500        3.54700        4.43600
  C       17.69700        1.50700        5.34500
  N       18.02400        0.89400        4.13900
  C       17.55800        1.67600        3.07500
  N       17.97400        2.99100        3.18400
  C       17.52700        3.78800        2.14300
  N       17.99300        5.08300        2.27800
  C       17.59400        5.91200        1.24400
  N       18.08000        7.21500        1.40500
  C       17.67500        8.02000        0.35500
  H       18.07900        9.02600        0.48200
  H       18.08500        0.93700        6.18600
  H       17.98600       -1.02300        4.82300
  C       17.60400       -0.41500        4.00000
  H       17.98600        9.32700       -1.82900
  C       17.60400        8.31200       -1.95800
  N       17.99100        7.51400       -0.89100
  C       17.49000        6.21100       -1.04400
  N       17.85500        5.37000        0.00400
  C       17.34000        4.08000       -0.12400
  N       17.77000        3.25100        0.90400
  C       17.32300        1.94200        0.80000
  N       17.82100        1.14300        1.83100
  C       17.45500       -0.18500        1.72100
  N       17.95000       -0.96900        2.77800
  H       17.96400       -2.89600        3.43900
  C       17.57700       -2.28900        2.61800
  H       18.01600        9.60000       -4.14800
  C       17.64600        8.58100       -4.27000
  N       17.98300        7.79700       -3.17700
  C       17.49300        6.48700       -3.33600
  C      -17.88300        3.14500        2.63000
  N       17.79300        5.66100       -2.26600
  N      -15.70400        5.47200       -4.48900
  C       17.27300        4.37500       -2.42000
  N      -18.11100        3.32900        1.28300
  C       17.71100        3.53800       -1.35700
  C      -15.82900        1.44200       -1.59000
  C       17.18300        2.22300       -1.49200
  C      -16.40200        4.93200       -9.29100
  C       17.69500        1.41300       -0.43800
  C      -17.75400        4.58900        0.83700
  N       17.76400       -0.69500        0.47800
  C       17.24700        0.07600       -0.56400
  N      -16.05400        8.64800       -1.98100
  N       17.96500       -2.81600        1.40200
  C       17.47000       -2.03500        0.34500
  C       17.63700       -4.14900        1.22000
  H       18.02100       -4.75800        2.04000
  O       18.28200        8.22500       -7.71800
  C       17.80600        6.97500       -7.91900
  N       18.05900        6.17000       -6.80600
  H      -16.12500       -4.71000        2.21000
  C       17.61500        4.87000       -6.98500
  N      -18.02800        4.75000       -0.50300
  N       17.83800        4.06000       -5.89800
  H      -16.05400       -5.62900       -0.02200
  C       17.40400        2.75300       -6.10700
  C       17.75200        1.95200       -5.01400
  N      -15.85400       -4.53600       -1.75200
  C       17.30900        0.62200       -5.20800
  C       17.74200       -0.15200       -4.10300
  C      -17.74000        6.01300       -0.97600
  C       17.38900       -1.49300       -4.27100
  N       17.81800       -2.23400       -3.17800
  C      -16.44500       -2.15000      -10.21000
  C       17.59200       -3.57900       -3.33900
  C       17.78400       -5.70400       -2.45000
  N       18.03700       -4.34200       -2.27400
  N      -18.09100        6.15000       -2.30400
  H       18.14300        9.80600       -6.52900
  C       17.77100        8.78700       -6.60600
  O      -16.13600        9.97500       -3.85700
  N       18.08300        8.05000       -5.46700
  C       17.62400        6.73400       -5.62300
  C      -17.84900        7.41300       -2.80300
  N       17.87400        5.92200       -4.53200
  C      -16.49100        8.95200       -4.66900
  C       17.38000        4.62800       -4.71800
  C      -15.88700        2.02200       -5.68900
  N      -18.25400        7.54800       -4.11800
  C       17.73400        3.81300       -3.63400
  C      -16.14500        3.47600       -7.51900
  C       17.21100        2.49800       -3.81500
  C      -18.00000        8.82000       -4.64000
  C       17.67300        1.69000       -2.72500
  C       17.19800        0.34900       -2.88700
  C       17.35400       -1.76500       -1.95800
  C       17.71000       -0.42300       -1.80500
  O      -18.47300        8.91800       -5.89800
  C       17.60400       -3.86500       -1.04900
  N       17.85100       -2.51800       -0.89300
  C      -16.12800       -2.36900       -0.05600
  N       18.07000       -4.65400        0.00900
  C      -16.20000       -4.10000       -4.45300
  C       17.76300       -5.98800       -0.23400
  O       18.26800       -6.41100       -1.40700
  O      -15.99100       -4.73100       -7.92900
  O       18.34900       -5.88800       -5.84800
  C       17.82500       -5.44100       -4.68700
  O       18.28800       -6.13100       -3.62500
  H       18.28100        3.01700      -11.56000
  C       17.87200        3.37800      -10.62000
  O       18.35100        4.61400      -10.39600
  H       18.18800        0.79800      -10.68100
  C       17.77900        1.19800       -9.75200
  N       18.17900        2.50800       -9.57800
  H       18.15900       -1.34400       -9.76400
  C       17.74300       -0.94300       -8.83700
  N       18.10200        0.38000       -8.68100
  H       18.19900       -3.48000       -8.82900
  C       17.78600       -3.07700       -7.90200
  H      -18.51800        4.66600        5.41900
  N       18.10600       -1.73700       -7.76400
  C      -18.09800        3.90300        4.76900
  N       18.18900       -3.84900       -6.82700
  C       17.68300       -3.32500       -5.63000
  H      -16.14800        5.11300      -10.33500
  N       17.92400       -1.97800       -5.46500
  C       17.57400       -1.22100       -6.57000
  N      -15.97600        7.21900       -0.07600
  N       17.85800        0.11400       -6.38500
  N      -18.28600        1.89700        3.07100
  C       17.57400        0.89600       -7.48600
  N       17.92900        2.21500       -7.28200
  C      -16.31000        7.54700       -2.80000
  C       17.68600        3.02100       -8.37500
  N       18.08400        4.33200       -8.16800
  C       17.83900        5.15700       -9.26600
  O       18.31300        6.40400       -9.03500
  H       18.30000       -5.64100       -7.81000
  C       17.88100       -5.20400       -6.90700
  N       18.07700       -4.07500       -4.53500
  H       18.15300       -6.62500        0.55700
  C      -16.32600       -5.52100       -2.63700
  H       16.15400       -5.81200       -7.90600
  C       16.41700       -5.31800       -6.97400
  C       16.31100       -3.17000       -7.99300
  H       16.07500       -3.61800       -8.95700
  C       16.26700       -0.99200       -8.95100
  H      -18.38900       -3.67500        4.24100
  H       16.04000       -1.41300       -9.92900
  H       16.06800        0.80900      -10.86500
  C       16.30400        1.20200       -9.87700
  H       16.13500        3.08400      -11.73700
  C       16.40700        3.41900      -10.74000
  N       15.90000       -4.01800       -6.95300
  O       15.97400       -6.08000       -5.94500
  C       16.31600       -5.56900       -4.74000
  N       15.80400       -4.27100       -4.62500
  C       16.14600       -3.44100       -5.70600
  O       15.91800       -6.33600       -3.69000
  C       16.27500       -5.83400       -2.47800
  N       15.76200       -4.54100       -2.30700
  C       16.06500       -3.70700       -3.37900
  N      -15.98100        7.75500       -4.15200
  O       15.89500       -6.60800       -1.43600
  C       16.29700       -6.10500       -0.24300
  N       15.77400       -4.83200        0.02300
  C       16.06500       -3.98500       -1.05000
  C       16.16000       -4.24800        1.24300
  N       15.66800       -2.95000        1.48000
  C       15.92700       -2.11800        0.38400
  N      -15.92100       -5.38200       -3.97500
  N       15.55300       -2.68600       -0.86700
  C       15.81000       -1.85900       -1.96900
  N       15.51900       -2.42100       -3.23600
  C       15.84500       -1.58300       -4.32800
  N       15.62800       -2.13500       -5.59800
  C       16.03400       -1.29700       -6.67100
  N       15.81400       -1.85600       -7.93400
  H       16.00600       -6.80100        0.54000
  H       15.89700       -4.90500        2.07200
  H       15.83600       -2.98000        3.52700
  C       16.09700       -2.34700        2.68000
  N       15.80800        0.34000       -8.88100
  C       16.03400        0.87900       -7.60900
  N       15.56100        0.04000       -6.56700
  C       15.76600        0.59100       -5.29500
  H      -16.37400        4.70700        5.62700
  C       15.19200       -0.23600       -4.20300
  C       15.66100        0.33500       -2.91000
  C       15.16000       -0.51800       -1.79900
  C       15.70300        0.03400       -0.52800
  N       15.46200       -0.79000        0.58000
  C       15.91200       -0.21600        1.79900
  N       15.65200       -1.02800        2.90900
  H       15.85400       -1.03200        4.95300
  C       16.12600       -0.42500        4.08900
  N       15.89000        2.54300       -9.77700
  C       16.14800        3.05600       -8.50500
  N       15.63300        2.24000       -7.48200
  C       15.86100        2.78700       -6.21000
  C       15.20400        1.96300       -5.14700
  C       15.67500        2.50500       -3.84400
  C      -16.63400        3.93300        4.90900
  N       15.27900        1.69100       -2.75600
  C       15.64700        2.23000       -1.49900
  C       15.14400        1.40200       -0.36800
  N       15.52100        1.14000        1.98100
  C       15.77800        1.96000        0.87300
  N       15.72900        0.90700        4.29300
  C       16.01800        1.69300        3.17600
  C       16.22900        1.53200        5.44100
  H       15.93400        0.97900        6.32900
  O       15.95100        6.51500       -9.22400
  C       16.29600        7.04600       -8.02700
  C      -16.20000        6.12600       -0.92200
  N       15.78300        6.28300       -6.97300
  C       16.08300        6.81500       -5.70300
  C      -16.37800       -3.52900       -8.43200
  N       15.57100        6.05700       -4.63800
  C       15.94900        6.57800       -3.36100
  C      -16.50700        5.46500        3.09200
  N       15.48900        5.81000       -2.26600
  C       15.94600        6.30600       -1.01100
  N       15.55700        5.51400        0.09400
  C       16.05500        5.99800        1.32000
  N       15.71600        5.19400        2.42400
  C       16.21900        5.68500        3.63700
  O       15.82700        4.89500        4.67100
  O       15.97700        4.69600      -10.58500
  C       16.33300        5.22000       -9.39000
  N       15.81900        4.41800       -8.36300
  C       16.09600        4.93500       -7.10100
  N       15.54700        4.16100       -6.06800
  C       15.83800        4.69200       -4.79000
  C       15.18600        3.90000       -3.69900
  C       15.73000        4.44200       -2.42500
  C       15.16100        3.62700       -1.32500
  C       15.79600        4.14100       -0.06700
  C       15.99800        3.84300        2.24200
  N       15.46900        3.33100        1.04600
  C       16.19500        3.59300        4.53900
  N       15.69800        3.05200        3.34600
  O       15.80700        2.81300        5.57400
  H       15.99500        9.89700       -6.65700
  H       15.88300        9.70800       -4.23300
  H       15.85600        9.45200       -1.83500
  H       15.98400        9.17100        0.56500
  H       16.02300        8.78600        2.96100
  C       16.29600        7.75400        2.75500
  N       15.78400        7.35500        1.51200
  C       16.19700        8.11300        0.40400
  N       15.68900        7.66900       -0.83700
  C       16.12300        8.40100       -1.95400
  N       15.68200        7.94000       -3.21700
  C       16.16600        8.65900       -4.32000
  N      -15.66300        2.21900       -7.06000
  N       15.78800        8.17200       -5.58500
  C       16.30200        8.85400       -6.69100
  O       15.90100        8.33100       -7.87400
  O       15.86500        6.98200        3.78100
  C       -6.41000        3.21700       -4.81300
  C       -1.93600        3.24900       -4.82600
  C       -1.92800        0.90100       -5.03400
  C       -6.41500        4.08500       -2.61600
  C       -9.37500        3.18800       -4.80200
  H      -19.01200        3.86600       -2.63800
  C       -6.40400        2.61000       -0.75400
  C       -7.14600        3.58800       -1.48500
  C       -2.67600        3.99200       -3.85400
  C       -7.12100       -0.48900       -1.99300
  C       -9.34900        0.83100       -5.09100
  C       -6.39500        0.25400       -1.01300
  C       -6.38400       -0.61800       -3.21200
  C       -1.94300        4.11700       -2.63200
  C       -7.13300        1.39400       -0.55800
  H      -16.27300        6.28200        3.77300
  C       -9.34300       -0.63300       -3.22000
  H       18.81100        3.52300       -1.35000
  C      -16.30800       -4.64800       -0.42000
  C      -16.44400        6.94700        1.22800
  C       -7.11600       -0.11700       -4.33000
  C      -15.34200        3.11700       -4.84300
  C       -6.38700        0.86100       -5.07000
  C        0.28800        3.59800       -1.52400
  H      -16.22200        7.78500        1.88700
  C       -7.15000        3.95500       -3.83200
  C       -7.13200        2.06700       -5.24800
  C       -4.17500        3.57300       -1.52900
  C       -0.45000        2.63500       -0.76900
  H      -16.09600        0.33800      -11.01200
  C       -1.93100       -0.57400       -3.19100
  N      -15.71100       -0.14700       -7.36600
  H      -16.23600        9.25500       -0.02400
  C      -16.46900        8.40200       -0.66000
  C      -16.11600        1.12900       -7.85100
  N      -15.44000        1.63700       -2.93900
  H      -16.29800       10.68000       -2.00600
  C      -16.56900        9.80100       -2.58400
  N      -16.10700        4.24200        3.65100
  C      -16.21000       -1.20800       -8.14600
  N      -15.87700       -2.48200       -7.64800
  O      -16.20100        2.74200        5.38800
  C      -16.54000        1.70900        4.58300
  N      -15.76400        4.57300       -6.69800
  H      -16.06100       -6.51200       -2.26900
  C       -1.94300        2.63300       -0.76400
  C       -2.66300       -0.07800       -4.30800
  C       -4.90900        2.60600       -0.78500
  N      -16.01600        1.92600        3.30200
  C       -4.90900        3.22800       -4.82700
  N      -15.93600       -1.04900       -9.50800
  C       -4.17000        1.40800       -0.59200
  C       -2.67400        1.41700       -0.57000
  C      -16.34700        3.18400        2.77200
  C       -4.89800        0.26100       -1.02200
  C       -4.16300       -0.48800       -1.98700
  C       -4.88900       -0.61600       -3.21200
  C       -4.15500       -0.10200       -4.32700
  C       -4.89300        0.86800       -5.07700
  C       -4.16600        2.08700       -5.26900
  C      -16.28400        5.79700       -7.15300
  C       -4.18000        3.97100       -3.85200
  C       -4.91600        4.07600       -2.63200
  C       -2.67900        3.59900       -1.51700
  C       -2.66700        2.09900       -5.25500
  C      -16.25400        6.66600       -4.97500
  C       -1.94100        0.27000       -0.99700
  H      -18.96600        0.75100       -5.08100
  C       -2.66600       -0.47500       -1.97600
  O      -16.14900        0.49700        5.06000
  C      -16.50300       -0.54600        4.26300
  N      -15.87400        1.31500       -9.21800
  N      -15.97900       -0.38400        2.97400
  N      -15.70200       -3.08600       -3.61100
  C      -16.27200        0.86600        2.43700
  O      -16.11700        9.11900       -5.96400
  C      -15.33500        0.14800       -1.04400
  C      -15.94600       -1.80500       -4.12500
  O      -16.13000       -1.75200        4.74900
  C      -16.48300        8.10000       -6.78200
  C      -16.52900       -2.77600        3.95600
  C        2.51300        0.27900       -0.98300
  C        1.78000        1.42900       -0.57800
  H      -18.99100        3.00600       -4.76100
  H      -18.98700        0.18600       -1.17100
  N      -15.63100       -1.62500       -5.49400
  N      -15.99700       -2.71100        2.66100
  C      -16.27900       -1.45700        2.11300
  C      -15.87900       -0.94000       -1.90500
  C      -16.36800       -4.93400       -6.63800
  C      -16.38100       -3.74100        1.78300
  C      -16.10200       -3.25400       -2.25600
  N      -15.87900       -3.64200        0.47100
