26
jout/3-pyrrole.jout	Energy:       0.0000000
  N        3.59780        0.69281        0.01314
  C        2.45329       -0.07999       -0.00465
  C        2.87019       -1.40675       -0.01853
  C        4.29139       -1.42005       -0.00876
  C        4.71601       -0.10830        0.01040
  H        2.22470       -2.27543       -0.03561
  H        4.92904       -2.29355       -0.01566
  H        5.70771        0.31976        0.02250
  H       -1.34499        2.71281       -0.01332
  N       -0.00497       -0.26954       -0.00046
  C       -1.14142        0.51351       -0.00303
  C       -0.71067        1.83594       -0.00958
  C        0.70675        1.83392       -0.01171
  C        1.13370        0.51027       -0.00585
  H        1.34355        2.70898       -0.01842
  H       -5.71596        0.33566        0.00124
  H       -4.94429       -2.27998        0.01451
  H       -2.23982       -2.26940        0.01267
  N       -3.60503        0.70285       -0.00219
  C       -4.72539       -0.09521        0.00286
  C       -4.30425       -1.40822        0.00949
  C       -2.88297       -1.39884        0.00845
  C       -2.46259       -0.07312        0.00116
  H       -3.60960        1.71104       -0.00739
  H       -0.00644       -1.27777        0.00625
  H        3.60495        1.70089        0.02703
