60
xyz/buckyball.dmol	Energy:       0.0000000
  C       -1.17573        1.42438        3.03142
  C        0.00000        0.69776        3.48093
  C        0.00000       -0.69776        3.48093
  C       -1.17573       -1.42438        3.03142
  C       -2.30467       -0.72682        2.60022
  C       -2.30467        0.72682        2.60022
  C        1.17573        1.42438        3.03142
  C        1.17573       -1.42438        3.03142
  C       -0.72682       -2.60022        2.30467
  C       -3.03142       -1.17573        1.42438
  C       -3.03142        1.17573        1.42438
  C       -0.72682        2.60022        2.30467
  C       -2.60022       -2.30467        0.72682
  C       -1.42438       -3.03142        1.17573
  C       -2.60022       -2.30467       -0.72682
  C       -0.69776       -3.48093        0.00000
  C        2.30467        0.72682        2.60022
  C        0.72682       -2.60022        2.30467
  C       -1.42438       -3.03142       -1.17573
  C        1.42438       -3.03142        1.17573
  C        2.30467       -0.72682        2.60022
  C       -3.48093        0.00000        0.69776
  C       -2.60022        2.30467        0.72682
  C        3.03142        1.17573        1.42438
  C       -1.42438        3.03142        1.17573
  C        0.72682        2.60022        2.30467
  C       -2.60022        2.30467       -0.72682
  C       -0.69776        3.48093        0.00000
  C        1.42438        3.03142        1.17573
  C        0.69776       -3.48093        0.00000
  C       -3.48093        0.00000       -0.69776
  C        3.03142       -1.17573        1.42438
  C       -1.42438        3.03142       -1.17573
  C        0.69776        3.48093        0.00000
  C        2.60022        2.30467        0.72682
  C        2.60022        2.30467       -0.72682
  C        3.48093        0.00000        0.69776
  C        2.60022       -2.30467        0.72682
  C        2.60022       -2.30467       -0.72682
  C        1.42438        3.03142       -1.17573
  C        0.72682        2.60022       -2.30467
  C        1.17573        1.42438       -3.03142
  C       -0.72682        2.60022       -2.30467
  C       -3.03142       -1.17573       -1.42438
  C        3.03142       -1.17573       -1.42438
  C       -3.03142        1.17573       -1.42438
  C       -2.30467        0.72682       -2.60022
  C        3.48093        0.00000       -0.69776
  C        1.42438       -3.03142       -1.17573
  C        0.72682       -2.60022       -2.30467
  C        3.03142        1.17573       -1.42438
  C        2.30467        0.72682       -2.60022
  C       -1.17573        1.42438       -3.03142
  C        0.00000        0.69776       -3.48093
  C        2.30467       -0.72682       -2.60022
  C       -2.30467       -0.72682       -2.60022
  C       -0.72682       -2.60022       -2.30467
  C        1.17573       -1.42438       -3.03142
  C       -1.17573       -1.42438       -3.03142
  C        0.00000       -0.69776       -3.48093
