60
xyz/buckyball.vmol	Energy:       0.0000000
  C       -0.62217        0.75375        1.60416
  C        0.00000        0.36924        1.84203
  C        0.00000       -0.36924        1.84203
  C       -0.62217       -0.75375        1.60416
  C       -1.21958       -0.38462        1.37598
  C       -1.21958        0.38462        1.37598
  C        0.62217        0.75375        1.60416
  C        0.62217       -0.75375        1.60416
  C       -0.38462       -1.37598        1.21958
  C       -1.60416       -0.62217        0.75375
  C       -1.60416        0.62217        0.75375
  C       -0.38462        1.37598        1.21958
  C       -1.37598       -1.21958        0.38462
  C       -0.75375       -1.60416        0.62217
  C       -1.37598       -1.21958       -0.38462
  C       -0.36924       -1.84203        0.00000
  C        1.21958        0.38462        1.37598
  C        0.38462       -1.37598        1.21958
  C       -0.75375       -1.60416       -0.62217
  C        0.75375       -1.60416        0.62217
  C        1.21958       -0.38462        1.37598
  C       -1.84203        0.00000        0.36924
  C       -1.37598        1.21958        0.38462
  C        1.60416        0.62217        0.75375
  C       -0.75375        1.60416        0.62217
  C        0.38462        1.37598        1.21958
  C       -1.37598        1.21958       -0.38462
  C       -0.36924        1.84203        0.00000
  C        0.75375        1.60416        0.62217
  C        0.36924       -1.84203        0.00000
  C       -1.84203        0.00000       -0.36924
  C        1.60416       -0.62217        0.75375
  C       -0.75375        1.60416       -0.62217
  C        0.36924        1.84203        0.00000
  C        1.37598        1.21958        0.38462
  C        1.37598        1.21958       -0.38462
  C        1.84203        0.00000        0.36924
  C        1.37598       -1.21958        0.38462
  C        1.37598       -1.21958       -0.38462
  C        0.75375        1.60416       -0.62217
  C        0.38462        1.37598       -1.21958
  C        0.62217        0.75375       -1.60416
  C       -0.38462        1.37598       -1.21958
  C       -1.60416       -0.62217       -0.75375
  C        1.60416       -0.62217       -0.75375
  C       -1.60416        0.62217       -0.75375
  C       -1.21958        0.38462       -1.37598
  C        1.84203        0.00000       -0.36924
  C        0.75375       -1.60416       -0.62217
  C        0.38462       -1.37598       -1.21958
  C        1.60416        0.62217       -0.75375
  C        1.21958        0.38462       -1.37598
  C       -0.62217        0.75375       -1.60416
  C        0.00000        0.36924       -1.84203
  C        1.21958       -0.38462       -1.37598
  C       -1.21958       -0.38462       -1.37598
  C       -0.38462       -1.37598       -1.21958
  C        0.62217       -0.75375       -1.60416
  C       -0.62217       -0.75375       -1.60416
  C        0.00000       -0.36924       -1.84203
