8
xyz/buckyball.box	Energy:       0.0000000
 Xx       -4.48100       -4.48100       -4.48100
 Xx        4.48100       -4.48100       -4.48100
 Xx        4.48100       -4.48100        4.48100
 Xx       -4.48100       -4.48100        4.48100
 Xx       -4.48100        4.48100       -4.48100
 Xx        4.48100        4.48100       -4.48100
 Xx        4.48100        4.48100        4.48100
 Xx       -4.48100        4.48100        4.48100
