60
xyz/buckyball.pdb	Energy:       0.0000000
  C       -1.17600        1.42400        3.03100
  C        0.00000        0.69800        3.48100
  C        0.00000       -0.69800        3.48100
  C       -1.17600       -1.42400        3.03100
  C       -2.30500       -0.72700        2.60000
  C       -2.30500        0.72700        2.60000
  C        1.17600        1.42400        3.03100
  C        1.17600       -1.42400        3.03100
  C       -0.72700       -2.60000        2.30500
  C       -3.03100       -1.17600        1.42400
  C       -3.03100        1.17600        1.42400
  C       -0.72700        2.60000        2.30500
  C       -2.60000       -2.30500        0.72700
  C       -1.42400       -3.03100        1.17600
  C       -2.60000       -2.30500       -0.72700
  C       -0.69800       -3.48100        0.00000
  C        2.30500        0.72700        2.60000
  C        0.72700       -2.60000        2.30500
  C       -1.42400       -3.03100       -1.17600
  C        1.42400       -3.03100        1.17600
  C        2.30500       -0.72700        2.60000
  C       -3.48100        0.00000        0.69800
  C       -2.60000        2.30500        0.72700
  C        3.03100        1.17600        1.42400
  C       -1.42400        3.03100        1.17600
  C        0.72700        2.60000        2.30500
  C       -2.60000        2.30500       -0.72700
  C       -0.69800        3.48100        0.00000
  C        1.42400        3.03100        1.17600
  C        0.69800       -3.48100        0.00000
  C       -3.48100        0.00000       -0.69800
  C        3.03100       -1.17600        1.42400
  C       -1.42400        3.03100       -1.17600
  C        0.69800        3.48100        0.00000
  C        2.60000        2.30500        0.72700
  C        2.60000        2.30500       -0.72700
  C        3.48100        0.00000        0.69800
  C        2.60000       -2.30500        0.72700
  C        2.60000       -2.30500       -0.72700
  C        1.42400        3.03100       -1.17600
  C        0.72700        2.60000       -2.30500
  C        1.17600        1.42400       -3.03100
  C       -0.72700        2.60000       -2.30500
  C       -3.03100       -1.17600       -1.42400
  C        3.03100       -1.17600       -1.42400
  C       -3.03100        1.17600       -1.42400
  C       -2.30500        0.72700       -2.60000
  C        3.48100        0.00000       -0.69800
  C        1.42400       -3.03100       -1.17600
  C        0.72700       -2.60000       -2.30500
  C        3.03100        1.17600       -1.42400
  C        2.30500        0.72700       -2.60000
  C       -1.17600        1.42400       -3.03100
  C        0.00000        0.69800       -3.48100
  C        2.30500       -0.72700       -2.60000
  C       -2.30500       -0.72700       -2.60000
  C       -0.72700       -2.60000       -2.30500
  C        1.17600       -1.42400       -3.03100
  C       -1.17600       -1.42400       -3.03100
  C        0.00000       -0.69800       -3.48100
