60
xyz/buckyball.xyz	Energy:       0.0000000
  C        0.00000        0.00000        0.00000
  C        0.00000        0.00000        0.00000
  C        0.00000        0.00000        0.00000
  C        0.00000        0.00000        0.00000
  C        0.00000        0.00000        0.00000
  C        0.00000        0.00000        0.00000
  C        0.00000        0.00000        0.00000
  C        0.00000        0.00000        0.00000
  C        0.00000        0.00000        0.00000
  C        0.00000        0.00000        0.00000
  C        0.00000        0.00000        0.00000
  C        0.00000        0.00000        0.00000
  C        0.00000        0.00000        0.00000
  C        0.00000        0.00000        0.00000
  C        0.00000        0.00000        0.00000
  C        0.00000        0.00000        0.00000
  C        0.00000        0.00000        0.00000
  C        0.00000        0.00000        0.00000
  C        0.00000        0.00000        0.00000
  C        0.00000        0.00000        0.00000
  C        0.00000        0.00000        0.00000
  C        0.00000        0.00000        0.00000
  C        0.00000        0.00000        0.00000
  C        0.00000        0.00000        0.00000
  C        0.00000        0.00000        0.00000
  C        0.00000        0.00000        0.00000
  C        0.00000        0.00000        0.00000
  C        0.00000        0.00000        0.00000
  C        0.00000        0.00000        0.00000
  C        0.00000        0.00000        0.00000
  C        0.00000        0.00000        0.00000
  C        0.00000        0.00000        0.00000
  C        0.00000        0.00000        0.00000
  C        0.00000        0.00000        0.00000
  C        0.00000        0.00000        0.00000
  C        0.00000        0.00000        0.00000
  C        0.00000        0.00000        0.00000
  C        0.00000        0.00000        0.00000
  C        0.00000        0.00000        0.00000
  C        0.00000        0.00000        0.00000
  C        0.00000        0.00000        0.00000
  C        0.00000        0.00000        0.00000
  C        0.00000        0.00000        0.00000
  C        0.00000        0.00000        0.00000
  C        0.00000        0.00000        0.00000
  C        0.00000        0.00000        0.00000
  C        0.00000        0.00000        0.00000
  C        0.00000        0.00000        0.00000
  C        0.00000        0.00000        0.00000
  C        0.00000        0.00000        0.00000
  C        0.00000        0.00000        0.00000
  C        0.00000        0.00000        0.00000
  C        0.00000        0.00000        0.00000
  C        0.00000        0.00000        0.00000
  C        0.00000        0.00000        0.00000
  C        0.00000        0.00000        0.00000
  C        0.00000        0.00000        0.00000
  C        0.00000        0.00000        0.00000
  C        0.00000        0.00000        0.00000
  C        0.00000        0.00000        0.00000
