60
xyz/buckyball.bs	Energy:       0.0000000
  C       -1.17570        1.42440        3.03140
  C        0.00000        0.69780        3.48090
  C        0.00000       -0.69780        3.48090
  C       -1.17570       -1.42440        3.03140
  C       -2.30470       -0.72680        2.60020
  C       -2.30470        0.72680        2.60020
  C        1.17570        1.42440        3.03140
  C        1.17570       -1.42440        3.03140
  C       -0.72680       -2.60020        2.30470
  C       -3.03140       -1.17570        1.42440
  C       -3.03140        1.17570        1.42440
  C       -0.72680        2.60020        2.30470
  C       -2.60020       -2.30470        0.72680
  C       -1.42440       -3.03140        1.17570
  C       -2.60020       -2.30470       -0.72680
  C       -0.69780       -3.48090        0.00000
  C        2.30470        0.72680        2.60020
  C        0.72680       -2.60020        2.30470
  C       -1.42440       -3.03140       -1.17570
  C        1.42440       -3.03140        1.17570
  C        2.30470       -0.72680        2.60020
  C       -3.48090        0.00000        0.69780
  C       -2.60020        2.30470        0.72680
  C        3.03140        1.17570        1.42440
  C       -1.42440        3.03140        1.17570
  C        0.72680        2.60020        2.30470
  C       -2.60020        2.30470       -0.72680
  C       -0.69780        3.48090        0.00000
  C        1.42440        3.03140        1.17570
  C        0.69780       -3.48090        0.00000
  C       -3.48090        0.00000       -0.69780
  C        3.03140       -1.17570        1.42440
  C       -1.42440        3.03140       -1.17570
  C        0.69780        3.48090        0.00000
  C        2.60020        2.30470        0.72680
  C        2.60020        2.30470       -0.72680
  C        3.48090        0.00000        0.69780
  C        2.60020       -2.30470        0.72680
  C        2.60020       -2.30470       -0.72680
  C        1.42440        3.03140       -1.17570
  C        0.72680        2.60020       -2.30470
  C        1.17570        1.42440       -3.03140
  C       -0.72680        2.60020       -2.30470
  C       -3.03140       -1.17570       -1.42440
  C        3.03140       -1.17570       -1.42440
  C       -3.03140        1.17570       -1.42440
  C       -2.30470        0.72680       -2.60020
  C        3.48090        0.00000       -0.69780
  C        1.42440       -3.03140       -1.17570
  C        0.72680       -2.60020       -2.30470
  C        3.03140        1.17570       -1.42440
  C        2.30470        0.72680       -2.60020
  C       -1.17570        1.42440       -3.03140
  C        0.00000        0.69780       -3.48090
  C        2.30470       -0.72680       -2.60020
  C       -2.30470       -0.72680       -2.60020
  C       -0.72680       -2.60020       -2.30470
  C        1.17570       -1.42440       -3.03140
  C       -1.17570       -1.42440       -3.03140
  C        0.00000       -0.69780       -3.48090
