109
xyz/table.alc	Energy:       0.0000000
  H        7.30000        3.50000        0.00000
 He       -6.30000        3.50000        0.00000
 Li        7.30000        2.70000        0.00000
 He        6.50000        2.70000        0.00000
  B       -2.30000        2.70000        0.00000
  C       -3.10000        2.70000        0.00000
  N       -3.90000        2.70000        0.00000
  O       -4.70000        2.70000        0.00000
  F       -5.50000        2.70000        0.00000
 He       -6.30000        2.70000        0.00000
 Na        7.30000        1.90000        0.00000
 He        6.50000        1.90000        0.00000
 Al       -2.30000        1.90000        0.00000
 Si       -3.10000        1.90000        0.00000
  P       -3.90000        1.90000        0.00000
  S       -4.70000        1.90000        0.00000
 Cl       -5.50000        1.90000        0.00000
 He       -6.30000        1.90000        0.00000
  K        7.30000        1.10000        0.00000
 Ca        6.50000        1.10000        0.00000
 He        5.70000        1.10000        0.00000
 He        4.90000        1.10000        0.00000
 Xx        4.10000        1.10000        0.00000
 He        3.30000        1.10000        0.00000
 Xx        2.50000        1.10000        0.00000
 Xx        1.70000        1.10000        0.00000
 He        0.90000        1.10000        0.00000
 Xx        0.10000        1.10000        0.00000
 Xx       -0.70000        1.10000        0.00000
 Zn       -1.50000        1.10000        0.00000
 He       -2.30000        1.10000        0.00000
 Ge       -3.10000        1.10000        0.00000
 He       -3.90000        1.10000        0.00000
 Se       -4.70000        1.10000        0.00000
 Br       -5.50000        1.10000        0.00000
 He       -6.30000        1.10000        0.00000
 He        7.30000        0.30000        0.00000
 He        6.50000        0.30000        0.00000
 He        5.70000        0.30000        0.00000
 He        4.90000        0.30000        0.00000
 He        4.10000        0.30000        0.00000
 He        3.30000        0.30000        0.00000
 He        2.50000        0.30000        0.00000
 He        1.70000        0.30000        0.00000
 He        0.90000        0.30000        0.00000
 Xx        0.10000        0.30000        0.00000
 He       -0.70000        0.30000        0.00000
 He       -1.50000        0.30000        0.00000
 He       -2.30000        0.30000        0.00000
 Sn       -3.10000        0.30000        0.00000
 He       -3.90000        0.30000        0.00000
 Te       -4.70000        0.30000        0.00000
  I       -5.50000        0.30000        0.00000
 He       -6.30000        0.30000        0.00000
 He        7.30000       -0.50000        0.00000
 He        6.50000       -0.50000        0.00000
 He        5.70000       -0.50000        0.00000
 He        4.10000       -2.50000        0.00000
 He        3.30000       -2.50000        0.00000
 He        2.50000       -2.50000        0.00000
 He        1.70000       -2.50000        0.00000
 He        0.90000       -2.50000        0.00000
 He        0.10000       -2.50000        0.00000
 He       -0.70000       -2.50000        0.00000
 He       -1.50000       -2.50000        0.00000
 He       -2.30000       -2.50000        0.00000
 He       -3.10000       -2.50000        0.00000
 He       -3.90000       -2.50000        0.00000
 He       -4.70000       -2.50000        0.00000
 He       -5.50000       -2.50000        0.00000
 He       -6.30000       -2.50000        0.00000
 He        4.90000       -0.50000        0.00000
 He        4.10000       -0.50000        0.00000
  W        3.30000       -0.50000        0.00000
 He        2.50000       -0.50000        0.00000
 He        1.70000       -0.50000        0.00000
 He        0.90000       -0.50000        0.00000
 Xx        0.10000       -0.50000        0.00000
 He       -0.70000       -0.50000        0.00000
 He       -1.50000       -0.50000        0.00000
 He       -2.30000       -0.50000        0.00000
 Pb       -3.10000       -0.50000        0.00000
 He       -3.90000       -0.50000        0.00000
 He       -4.70000       -0.50000        0.00000
 He       -5.50000       -0.50000        0.00000
 He       -6.30000       -0.50000        0.00000
 He        7.30000       -1.30000        0.00000
 He        6.50000       -1.30000        0.00000
 He        5.70000       -1.30000        0.00000
 He        4.10000       -3.30000        0.00000
 He        3.30000       -3.30000        0.00000
 He        2.50000       -3.30000        0.00000
 He        1.70000       -3.30000        0.00000
 He        0.90000       -3.30000        0.00000
 He        0.10000       -3.30000        0.00000
 He       -0.70000       -3.30000        0.00000
 He       -1.50000       -3.30000        0.00000
 He       -2.30000       -3.30000        0.00000
 He       -3.10000       -3.30000        0.00000
 He       -3.90000       -3.30000        0.00000
 He       -4.70000       -3.30000        0.00000
 He       -5.50000       -3.30000        0.00000
 He       -6.30000       -3.30000        0.00000
 He        4.90000       -1.30000        0.00000
 He        4.10000       -1.30000        0.00000
 He        3.30000       -1.30000        0.00000
 He        2.50000       -1.30000        0.00000
 He        1.70000       -1.30000        0.00000
 He        0.90000       -1.30000        0.00000
