109
	Energy:       0.0000000
  H        7.30000        3.50000        0.00000
  H       -6.30000        3.50000        0.00000
  H        7.30000        2.70000        0.00000
  B        6.50000        2.70000        0.00000
  B       -2.30000        2.70000        0.00000
  C       -3.10000        2.70000        0.00000
  N       -3.90000        2.70000        0.00000
  O       -4.70000        2.70000        0.00000
  F       -5.50000        2.70000        0.00000
  N       -6.30000        2.70000        0.00000
  N        7.30000        1.90000        0.00000
  H        6.50000        1.90000        0.00000
  H       -2.30000        1.90000        0.00000
  S       -3.10000        1.90000        0.00000
  P       -3.90000        1.90000        0.00000
  S       -4.70000        1.90000        0.00000
  C       -5.50000        1.90000        0.00000
  H       -6.30000        1.90000        0.00000
  K        7.30000        1.10000        0.00000
  C        6.50000        1.10000        0.00000
  S        5.70000        1.10000        0.00000
  H        4.90000        1.10000        0.00000
  V        4.10000        1.10000        0.00000
  C        3.30000        1.10000        0.00000
  H        2.50000        1.10000        0.00000
  F        1.70000        1.10000        0.00000
  C        0.90000        1.10000        0.00000
  N        0.10000        1.10000        0.00000
  C       -0.70000        1.10000        0.00000
  H       -1.50000        1.10000        0.00000
  H       -2.30000        1.10000        0.00000
  H       -3.10000        1.10000        0.00000
  H       -3.90000        1.10000        0.00000
  S       -4.70000        1.10000        0.00000
  B       -5.50000        1.10000        0.00000
  K       -6.30000        1.10000        0.00000
  H        7.30000        0.30000        0.00000
  S        6.50000        0.30000        0.00000
  Y        5.70000        0.30000        0.00000
  H        4.90000        0.30000        0.00000
  N        4.10000        0.30000        0.00000
  H        3.30000        0.30000        0.00000
  H        2.50000        0.30000        0.00000
  H        1.70000        0.30000        0.00000
  H        0.90000        0.30000        0.00000
  P        0.10000        0.30000        0.00000
  H       -0.70000        0.30000        0.00000
  C       -1.50000        0.30000        0.00000
  I       -2.30000        0.30000        0.00000
  S       -3.10000        0.30000        0.00000
  S       -3.90000        0.30000        0.00000
  H       -4.70000        0.30000        0.00000
  I       -5.50000        0.30000        0.00000
  H       -6.30000        0.30000        0.00000
  C        7.30000       -0.50000        0.00000
  B        6.50000       -0.50000        0.00000
  H        5.70000       -0.50000        0.00000
  C        4.10000       -2.50000        0.00000
  P        3.30000       -2.50000        0.00000
  N        2.50000       -2.50000        0.00000
  P        1.70000       -2.50000        0.00000
  S        0.90000       -2.50000        0.00000
  H        0.10000       -2.50000        0.00000
  H       -0.70000       -2.50000        0.00000
  H       -1.50000       -2.50000        0.00000
  H       -2.30000       -2.50000        0.00000
  H       -3.10000       -2.50000        0.00000
  H       -3.90000       -2.50000        0.00000
  H       -4.70000       -2.50000        0.00000
  Y       -5.50000       -2.50000        0.00000
  H       -6.30000       -2.50000        0.00000
  H        4.90000       -0.50000        0.00000
  H        4.10000       -0.50000        0.00000
  W        3.30000       -0.50000        0.00000
  H        2.50000       -0.50000        0.00000
  O        1.70000       -0.50000        0.00000
  I        0.90000       -0.50000        0.00000
  P        0.10000       -0.50000        0.00000
  H       -0.70000       -0.50000        0.00000
  H       -1.50000       -0.50000        0.00000
  H       -2.30000       -0.50000        0.00000
  P       -3.10000       -0.50000        0.00000
  B       -3.90000       -0.50000        0.00000
  P       -4.70000       -0.50000        0.00000
  H       -5.50000       -0.50000        0.00000
  H       -6.30000       -0.50000        0.00000
  F        7.30000       -1.30000        0.00000
  H        6.50000       -1.30000        0.00000
  H        5.70000       -1.30000        0.00000
  H        4.10000       -3.30000        0.00000
  P        3.30000       -3.30000        0.00000
  U        2.50000       -3.30000        0.00000
  N        1.70000       -3.30000        0.00000
  P        0.90000       -3.30000        0.00000
  H        0.10000       -3.30000        0.00000
  C       -0.70000       -3.30000        0.00000
  B       -1.50000       -3.30000        0.00000
  C       -2.30000       -3.30000        0.00000
  H       -3.10000       -3.30000        0.00000
  F       -3.90000       -3.30000        0.00000
  H       -4.70000       -3.30000        0.00000
  N       -5.50000       -3.30000        0.00000
  H       -6.30000       -3.30000        0.00000
  H        4.90000       -1.30000        0.00000
  H        4.10000       -1.30000        0.00000
  S        3.30000       -1.30000        0.00000
  B        2.50000       -1.30000        0.00000
  H        1.70000       -1.30000        0.00000
  H        0.90000       -1.30000        0.00000
