109
xyz/table.vmol	Energy:       0.0000000
  H        3.86299        1.85212        0.00000
 He       -3.33382        1.85212        0.00000
 Li        3.86299        1.42878        0.00000
 Be        3.43965        1.42878        0.00000
  B       -1.21711        1.42878        0.00000
  C       -1.64045        1.42878        0.00000
  N       -2.06379        1.42878        0.00000
  O       -2.48713        1.42878        0.00000
  F       -2.91047        1.42878        0.00000
 Ne       -3.33382        1.42878        0.00000
 Na        3.86299        1.00544        0.00000
 Mg        3.43965        1.00544        0.00000
 Al       -1.21711        1.00544        0.00000
 Si       -1.64045        1.00544        0.00000
  P       -2.06379        1.00544        0.00000
  S       -2.48713        1.00544        0.00000
 Cl       -2.91047        1.00544        0.00000
 Ar       -3.33382        1.00544        0.00000
  K        3.86299        0.58209        0.00000
 Ca        3.43965        0.58209        0.00000
 Sc        3.01631        0.58209        0.00000
 Ti        2.59297        0.58209        0.00000
  V        2.16963        0.58209        0.00000
 Cr        1.74628        0.58209        0.00000
 Mn        1.32294        0.58209        0.00000
 Fe        0.89960        0.58209        0.00000
 Co        0.47626        0.58209        0.00000
 Ni        0.05292        0.58209        0.00000
 Cu       -0.37042        0.58209        0.00000
 Zn       -0.79377        0.58209        0.00000
 Ga       -1.21711        0.58209        0.00000
 Ge       -1.64045        0.58209        0.00000
 As       -2.06379        0.58209        0.00000
 Se       -2.48713        0.58209        0.00000
 Br       -2.91047        0.58209        0.00000
 Kr       -3.33382        0.58209        0.00000
 Rb        3.86299        0.15875        0.00000
 Sr        3.43965        0.15875        0.00000
  Y        3.01631        0.15875        0.00000
 Zr        2.59297        0.15875        0.00000
 Nb        2.16963        0.15875        0.00000
 Mo        1.74628        0.15875        0.00000
 Tc        1.32294        0.15875        0.00000
 Ru        0.89960        0.15875        0.00000
 Rh        0.47626        0.15875        0.00000
 Pd        0.05292        0.15875        0.00000
 Ag       -0.37042        0.15875        0.00000
 Cd       -0.79377        0.15875        0.00000
 In       -1.21711        0.15875        0.00000
 Sn       -1.64045        0.15875        0.00000
 Sb       -2.06379        0.15875        0.00000
 Te       -2.48713        0.15875        0.00000
  I       -2.91047        0.15875        0.00000
 Xe       -3.33382        0.15875        0.00000
 Cs        3.86299       -0.26459        0.00000
 Ba        3.43965       -0.26459        0.00000
 La        3.01631       -0.26459        0.00000
 Ce        2.16963       -1.32294        0.00000
 Pr        1.74628       -1.32294        0.00000
 Nd        1.32294       -1.32294        0.00000
 Pm        0.89960       -1.32294        0.00000
 Sm        0.47626       -1.32294        0.00000
 Eu        0.05292       -1.32294        0.00000
 Gd       -0.37042       -1.32294        0.00000
 Tb       -0.79377       -1.32294        0.00000
 Dy       -1.21711       -1.32294        0.00000
 Ho       -1.64045       -1.32294        0.00000
 Er       -2.06379       -1.32294        0.00000
 Tm       -2.48713       -1.32294        0.00000
 Yb       -2.91047       -1.32294        0.00000
 Lu       -3.33382       -1.32294        0.00000
 Hf        2.59297       -0.26459        0.00000
 Ta        2.16963       -0.26459        0.00000
  W        1.74628       -0.26459        0.00000
 Re        1.32294       -0.26459        0.00000
 Os        0.89960       -0.26459        0.00000
 Ir        0.47626       -0.26459        0.00000
 Pt        0.05292       -0.26459        0.00000
 Au       -0.37042       -0.26459        0.00000
 Hg       -0.79377       -0.26459        0.00000
 Tl       -1.21711       -0.26459        0.00000
 Pb       -1.64045       -0.26459        0.00000
 Bi       -2.06379       -0.26459        0.00000
 Po       -2.48713       -0.26459        0.00000
 At       -2.91047       -0.26459        0.00000
 Rn       -3.33382       -0.26459        0.00000
 Fr        3.86299       -0.68793        0.00000
 Ra        3.43965       -0.68793        0.00000
 Ac        3.01631       -0.68793        0.00000
 Th        2.16963       -1.74628        0.00000
 Pa        1.74628       -1.74628        0.00000
  U        1.32294       -1.74628        0.00000
 Np        0.89960       -1.74628        0.00000
 Pu        0.47626       -1.74628        0.00000
 Am        0.05292       -1.74628        0.00000
 Cm       -0.37042       -1.74628        0.00000
 Bk       -0.79377       -1.74628        0.00000
 Cf       -1.21711       -1.74628        0.00000
 Es       -1.64045       -1.74628        0.00000
 Fm       -2.06379       -1.74628        0.00000
 Md       -2.48713       -1.74628        0.00000
 No       -2.91047       -1.74628        0.00000
 Lr       -3.33382       -1.74628        0.00000
 Rf        2.59297       -0.68793        0.00000
 Db        2.16963       -0.68793        0.00000
 Sg        1.74628       -0.68793        0.00000
 Bh        1.32294       -0.68793        0.00000
 Hs        0.89960       -0.68793        0.00000
 Mt        0.47626       -0.68793        0.00000
