8
xyz/table.box	Energy:       0.0000000
 Xx       -7.30000       -4.30000       -1.00000
 Xx        8.30000       -4.30000       -1.00000
 Xx        8.30000       -4.30000        1.00000
 Xx       -7.30000       -4.30000        1.00000
 Xx       -7.30000        4.50000       -1.00000
 Xx        8.30000        4.50000       -1.00000
 Xx        8.30000        4.50000        1.00000
 Xx       -7.30000        4.50000        1.00000
