8
mpqc/b2h6.mpqc	Energy:       0.0000000
  H        1.03691        0.00000        1.46251
  H       -1.03691       -0.00000        1.46251
  B        0.00000       -0.00000        0.88903
  H       -0.00000        0.96960        0.00000
  H       -0.00000       -0.96960        0.00000
  B        0.00000       -0.00000       -0.88903
  H        1.03691        0.00000       -1.46251
  H       -1.03691        0.00000       -1.46251
