%mem=600mb
# BLYP/6-31g Opt

silcon

0  1
Si          0.67898         0.67898         0.67898 
Si         -0.68898        -0.67298        -0.68898 
TV         2.715909         0.00000        2.715909
TV         2.715909        2.715909        0.000000
TV         0.000000        2.715909        2.715909


